<?xml version="1.0" encoding="UTF-8"?>

<!-- generated on 2023-02-10 13:24:23 by Eclipse SUMO duarouter Version v1_15_0+1221-7bac799b92d
<configuration xmlns:xsi="http://www.w3.org/2001/XMLSchema-instance" xsi:noNamespaceSchemaLocation="http://sumo.dlr.de/xsd/duarouterConfiguration.xsd">

    <input>
        <net-file value="C:\Users\giuli\Desktop\sumo_map\milan_road_network.net.xml"/>
        <route-files value="C:\Users\giuli\Desktop\sumo_map\baseline.rou.xml"/>
    </input>

    <output>
        <output-file value="C:\Users\giuli\Desktop\sumo_map\dua\duaw5_milan_conf.rou.xml"/>
    </output>

    <processing>
        <weights.random-factor value="5"/>
    </processing>

</configuration>
-->

<routes xmlns:xsi="http://www.w3.org/2001/XMLSchema-instance" xsi:noNamespaceSchemaLocation="http://sumo.dlr.de/xsd/routes_file.xsd">
    <vType id="type1" length="5.00" maxSpeed="70.00" accel="2.6" decel="4.5" sigma="0.5"/>
    <vehicle id="f0.0" type="type1" depart="0.00">
        <route edges="333570295#0 23307914#0 333570320#0 333570308 333570315#0 264755868#0 133961085#0 -152922477#1 171825997 264761951 152922473 871858972 265630459#0 265630458 168937668#0 265631501#0 168937667 4875744 653352726 4875743#0 4875746#0 266640583 266640571 266640546 4018829#0 4018796-AddedOnRampEdge 4018796 266873740 117374502#0 -167683574#1 -200664686 167683577#0 167683555#0 273511264#0 -167819132#0 -4018789 -56502504#1 -149765127#2 4875782#0 8320951 278871042 267473432#0 140543429 181274771#0 270365355#0 270331227 270331225 57870224#0 25947432 285857318 285857317#0 294956075#0 285857309 285282380#0 285282378#0 294977623 285282373 285282381 15238333 -285282361#1 -285282362#1 -285282355#1 -285282354#0 -285282357 -4012050#5 286042714#0 286042719 184791186#0 32009500#0 -183474089#1 -277213255 -369273052 116620113 109299806 44937046 286054685 8132085#0 4011875#0 4011888#0 286054692#0 -286054690 -8311357#1 -4497290#1 168877720 275921344#0 275921360#0 -4497400 111872309#0 4011856#0 275921348 275921365#0 275921347 4497314#0 275904724 275904724-AddedOffRampEdge 4012153 280001383 275904704 260583182 86356097#0 260647453 275507287 275507286 260647823 275507271#0"/>
    </vehicle>
    <vehicle id="f0.1" type="type1" depart="0.10">
        <route edges="333570295#0 23307914#0 333570320#0 333570308 333570315#0 264755868#0 264755862#0 182938483#0 282680469#0 264761945 35572950#0 168937669#0 265630459#0 265630458 168937668#0 265631501#0 168937667 4875744 653352726 4875743#0 4875746#0 266640583 266640571 266640546 4018829#0 4018796-AddedOnRampEdge 4018796 266873740 117374502#0 -167683574#1 -200664686 167683577#0 167683555#0 273511264#0 -167819132#0 -4018789 -56502504#1 -149765127#2 4875782#0 8320951 278871042 267473432#0 140543429 181274771#0 270365355#0 270331227 270331225 57870224#0 25947432 285857318 285857317#0 294956075#0 285857309 285282380#0 285282378#0 294977623 285282373 285282381 15238333 -285282361#1 -285282362#1 -285282355#1 -285282354#0 -285282357 -4012050#5 286042714#0 286042719 184791186#0 32009500#0 -183474089#1 -277213255 -369273052 116620113 109299806 44937046 286054685 8132085#0 4011875#0 4011888#0 286054692#0 -286054690 290036152#0 -111873580#1 -4497290#1 168877720 275921344#0 275921356#0 275921359#0 4497314#0 275904724 275904724-AddedOffRampEdge 4012153 280001383 275904704 260583182 86356097#0 260647453 275507287 275507286 260647823 275507271#0"/>
    </vehicle>
    <vehicle id="f0.2" type="type1" depart="0.20">
        <route edges="333570295#0 333570301#0 -264672504#1 44634998#0 264675508#0 44634996#0 264885340#0 148378168#0 281927972#1 871858972 265630459#0 265630458 168937668#0 265631501#0 168937667 4875744 653352726 4875743#0 4875746#0 266640583 266640571 266640546 4018829#0 4018796-AddedOnRampEdge 4018796 266873740 117374502#0 -167683574#1 -200664686 167683577#0 167683555#0 273511264#0 -167819132#0 -4018789 -56502504#1 -149765127#2 4875782#0 8320951 278871042 267473432#0 140543429 181274771#0 270365355#0 270331227 270331225 57870224#0 25947432 285857318 285857317#0 294956075#0 285857309 285282380#0 285282378#0 294977623 285282373 285282381 15238333 -285282361#1 -285282362#1 -285282355#1 -285282354#0 -285282357 -4012050#5 286042714#0 286042719 184791186#0 32009500#0 -183474089#1 -277213255 -369273052 -369273051#1 -297180563 243174993 4012098#0 277209388 272096337 277206314#0 277206300#0 277206298#0 277205838#0 277205493#0 32013582 277205506#0 275921341 275921339 275921342#0 4011856#0 275921348 275921365#0 275921347 4497314#0 275904724 275904724-AddedOffRampEdge 4012153 280001383 275904704 260583182 86356097#0 260647453 275507287 275507286 260647823 275507271#0"/>
    </vehicle>
    <vehicle id="f0.3" type="type1" depart="0.30">
        <route edges="333570295#0 23307914#0 333570320#0 333570308 333570315#0 264755868#0 264755862#0 182938483#0 282680469#0 264761945 35572950#0 168937669#0 265630459#0 265630458 168937668#0 265631501#0 168937667 4875744 653352726 4875743#0 4875746#0 266640583 266640571 266640546 4018829#0 4018796-AddedOnRampEdge 4018796 266873740 117374502#0 -167683574#1 -200664686 167683577#0 167683555#0 273511264#0 -167819132#0 -4018789 -56502504#1 -149765127#2 4875782#0 8320951 278871042 267473432#0 140543429 181274771#0 270365355#0 270331227 270331225 57870224#0 25947432 285857318 285857317#0 294956075#0 285857309 285282380#0 285282378#0 294977623 285282373 285282381 15238333 -285282361#1 -285282362#1 -285282355#1 -285282354#0 -285282357 -4012050#5 286042714#0 286042719 184791186#0 32009500#0 -183474089#1 -277213255 -369273052 116620113 109299806 44937046 286054685 8132085#0 4011875#0 4011888#0 286054692#0 -286054690 -8311357#1 -4497290#1 168877720 275921344#0 275921356#0 275921359#0 4497314#0 275904724 275904724-AddedOffRampEdge 4012153 280001383 275904704 260583182 86356097#0 260647453 275507287 275507286 260647823 275507271#0"/>
    </vehicle>
    <vehicle id="f0.4" type="type1" depart="0.40">
        <route edges="333570295#0 333570301#0 -264672504#1 44634998#0 264675508#0 44634996#0 264885340#0 148378168#0 281927972#1 871858972 265630459#0 265630458 168937668#0 265631501#0 168937667 4875744 653352726 4875743#0 4875746#0 266640583 266640571 266640546 4018829#0 4018796-AddedOnRampEdge 4018796 266873740 117374502#0 -167683574#1 -200664686 167683577#0 167683555#0 273511264#0 -167819132#0 -4018789 -56502504#1 -149765127#2 4875782#0 8320951 278871042 267473432#0 140543429 181274771#0 270365355#0 270331227 270331225 57870224#0 25947432 285857318 285857317#0 294956075#0 285857309 285282380#0 285282378#0 294977623 285282373 285282381 15238333 -285282361#1 -285282362#1 4011790#0 285272469 285272465 285272413#0 285272467 285272482#0 285272392 285272395 285272411 285272399#0 328812728 328812727 328812729#0 4012080#0 288781194#0 286033249#0 173141827 286033261#0 -4011928#2 286057312#0 286054686#0 272112937 4521134#0 4011875#0 4011888#0 286054692#0 -286054690 290036152#0 -111873580#1 -4497290#1 168877720 275921344#0 275921356#0 275921359#0 4497314#0 275904724 275904724-AddedOffRampEdge 4012153 280001383 275904704 260583182 86356097#0 260647453 275507287 275507286 260647823 275507271#0"/>
    </vehicle>
    <vehicle id="f0.5" type="type1" depart="0.50">
        <route edges="333570295#0 23307914#0 333570320#0 333570308 333570315#0 264755868#0 264755862#0 182938483#0 282680469#0 264761945 35572950#0 168937669#0 265630459#0 265630458 168937668#0 265631501#0 168937667 4875744 653352726 4875743#0 4875746#0 266640583 266640571 266640546 4018829#0 4018796-AddedOnRampEdge 4018796 266873740 117374502#0 -167683574#1 -200664686 167683577#0 167683555#0 273511264#0 -167819132#0 -4018789 -56502504#1 -149765127#2 4875782#0 8320951 278871042 267473432#0 140543429 181274771#0 270365355#0 270331227 270331225 57870224#0 25947432 285857318 285857317#0 294956075#0 285857309 285282380#0 285282378#0 294977623 285282373 285282381 15238333 -285282361#1 -285282362#1 -285282355#1 -285282354#0 -285282357 -4012050#5 286042714#0 286042719 184791186#0 32009500#0 -183474089#1 -277213255 -369273052 116620113 109299806 44937046 286054685 8132085#0 4011875#0 4011888#0 286054692#0 -286054690 -8311357#1 -4497290#1 168877720 275921344#0 275921356#0 275921359#0 4497314#0 275904724 275904724-AddedOffRampEdge 4012153 280001383 275904704 260583182 86356097#0 260647453 275507287 275507286 260647823 275507271#0"/>
    </vehicle>
    <vehicle id="f0.6" type="type1" depart="0.60">
        <route edges="333570295#0 333570301#0 -264672504#1 -264675511#2 -141324108#1 141324112#0 264885340#0 148378168#0 281927972#1 871858972 265630459#0 265630458 168937668#0 265631501#0 168937667 4875744 653352726 4875743#0 4875746#0 266640583 266640571 266640546 4018829#0 4018796-AddedOnRampEdge 4018796 266873740 117374502#0 -167683574#1 -200664686 167683577#0 167683555#0 273511264#0 -167819132#0 -4018789 -56502504#1 -149765127#2 4875782#0 8320951 278871042 267473432#0 140543429 181274771#0 270365355#0 270331227 270331225 57870224#0 25947432 285857318 285857317#0 294956075#0 285857309 285282380#0 285282378#0 294977623 285282373 285282381 15238333 -285282361#1 -285282362#1 -285282355#1 -285282354#0 -285282357 -4012050#5 286042714#0 286042719 184791186#0 32009500#0 -183474089#1 -277213255 -369273052 -369273051#1 -297180563 243174993 4012098#0 277209388 272096337 277206314#0 277206300#0 277206298#0 277205838#0 277205493#0 32013582 277205491 275921341 275921339 275921342#0 4011856#0 275921348 275921365#0 275921347 4497314#0 275904724 275904724-AddedOffRampEdge 4012153 280001383 275904704 260583182 86356097#0 260647453 275507287 275507286 260647823 275507271#0"/>
    </vehicle>
    <vehicle id="f0.7" type="type1" depart="0.70">
        <route edges="333570295#0 23307914#0 333570320#0 333570308 333570315#0 264755868#0 264755862#0 182938483#0 282680469#0 264761945 35572950#0 168937669#0 265630459#0 265630458 168937668#0 265631501#0 168937667 4875744 653352726 4875743#0 4875746#0 266640583 266640571 266640546 4018829#0 4018796-AddedOnRampEdge 4018796 266873740 117374502#0 -167683574#1 -200664686 167683577#0 167683555#0 273511264#0 -167819132#0 -4018789 -56502504#1 -149765127#2 4875782#0 8320951 278871042 267473432#0 140543429 181274771#0 270365355#0 270331227 270331225 57870224#0 25947432 285857318 285857317#0 294956075#0 285857309 285282380#0 285282378#0 294977623 285282373 285282381 22817409#0 285282335#0 285272428#0 285272432 285272426 8132103#0 307140189 285272385#0 285272411 285272399#0 328812728 328812727 328812729#0 4012080#0 288781194#0 286033249#0 173141827 286033261#0 168877730#0 168877729#0 286054683#0 4011840#0 22817455#0 4521132#0 4521131#0 4521129#0 277205840#0 32013582 277205491 275921341 275921339 275921342#0 4011856#0 275921348 275921365#0 275921347 4497314#0 275904724 275904724-AddedOffRampEdge 4012153 280001383 275904704 260583182 86356097#0 260647453 275507287 275507286 260647823 275507271#0"/>
    </vehicle>
    <vehicle id="f0.8" type="type1" depart="0.80">
        <route edges="333570295#0 23307914#0 333570320#0 333570308 333570315#0 264755868#0 264755862#0 182938483#0 282680469#0 264761945 35572950#0 168937669#0 265630459#0 265630458 168937668#0 265631501#0 168937667 4875744 653352726 4875743#0 4875746#0 266640583 266640571 266640546 4018829#0 4018796-AddedOnRampEdge 4018796 266873740 117374502#0 -167683574#1 -200664686 167683577#0 167683555#0 273511264#0 -167819132#0 -4018789 -56502504#1 -149765127#2 4875782#0 8320951 278871042 267473432#0 140543429 181274771#0 270365355#0 270331227 270331225 57870224#0 25947432 285857318 285857317#0 294956075#0 285857309 285282380#0 285282378#0 294977623 285282373 285282381 15238333 -285282361#1 -285282362#1 -285282355#1 -285282354#0 -285282357 -4012050#5 286042714#0 286042719 184791186#0 32009500#0 -183474089#1 -277213255 -369273052 116620113 109299806 44937046 286054685 8132085#0 15364347#0 4521132#0 4521131#0 4521129#0 277205840#0 32013582 277205506#0 275921341 275921339 275921342#0 4011856#0 275921348 275921365#0 275921347 4497314#0 275904724 275904724-AddedOffRampEdge 4012153 280001383 275904704 260583182 86356097#0 260647453 275507287 275507286 260647823 275507271#0"/>
    </vehicle>
    <vehicle id="f0.9" type="type1" depart="0.90">
        <route edges="333570295#0 333570301#0 -264672504#1 -264675511#2 -141324108#1 141324112#0 264885340#0 148378168#0 281927972#1 871858972 265630459#0 265630458 168937668#0 265631501#0 168937667 4875744 653352726 4875743#0 4875746#0 266640583 266640571 266640546 4018829#0 4018796-AddedOnRampEdge 4018796 266873740 117374502#0 -167683574#1 -200664686 167683577#0 167683555#0 273511264#0 -167819132#0 -4018789 -56502504#1 -149765127#2 4875782#0 8320951 278871042 267473432#0 140543429 181274771#0 270365355#0 270331227 270331225 57870224#0 25947432 285857318 285857317#0 294956075#0 285857309 285282380#0 285282378#0 294977623 285282373 285282381 15238333 -285282361#1 -285282362#1 -285282355#1 -285282354#0 -285282357 -4012050#5 286042714#0 286042719 184791186#0 32009500#0 -183474089#1 -277213255 -369273052 -369273051#1 -297180563 243174993 4012098#0 277209388 272096337 277206314#0 277206300#0 277206298#0 277205838#0 277205493#0 32013582 277205506#0 275921341 275921339 275921342#0 4011856#0 275921348 275921365#0 275921347 4497314#0 275904724 275904724-AddedOffRampEdge 4012153 280001383 275904704 260583182 86356097#0 260647453 275507287 275507286 260647823 275507271#0"/>
    </vehicle>
    <vehicle id="f0.10" type="type1" depart="1.00">
        <route edges="333570295#0 333570301#0 -264672504#1 -264675511#2 -141324108#1 141324112#0 264885340#0 148378168#0 281927972#1 871858972 265630459#0 265630458 168937668#0 265631501#0 168937667 4875744 653352726 4875743#0 4875746#0 266640583 266640571 266640546 4018829#0 4018796-AddedOnRampEdge 4018796 266873740 117374502#0 -167683574#1 -200664686 167683577#0 167683555#0 273511264#0 -167819132#0 -4018789 -56502504#1 -149765127#2 4875782#0 8320951 278871042 267473432#0 140543429 181274771#0 270365355#0 270331227 270331225 57870224#0 25947432 285857318 285857317#0 294956075#0 285857309 285282380#0 285282378#0 294977623 285282373 285282381 15238333 -285282361#1 -285282362#1 -285282355#1 -285282354#0 -285282357 -4012050#5 286042714#0 286042719 184791186#0 32009500#0 -183474089#1 -277213255 -369273052 -369273051#1 -297180563 243174993 4012098#0 277209388 272096337 277206314#0 277206300#0 277206298#0 277205838#0 277205493#0 32013582 277205506#0 275921341 275921339 275921342#0 4011856#0 275921348 275921365#0 275921347 4497314#0 275904724 275904724-AddedOffRampEdge 4012153 280001383 275904704 260583182 86356097#0 260647453 275507287 275507286 260647823 275507271#0"/>
    </vehicle>
    <vehicle id="f0.11" type="type1" depart="1.10">
        <route edges="333570295#0 23307914#0 333570320#0 333570308 333570315#0 264755868#0 264755862#0 182938483#0 282680469#0 264761945 35572950#0 168937669#0 265630459#0 265630458 168937668#0 265631501#0 168937667 4875744 653352726 4875743#0 4875746#0 266640583 266640571 266640546 4018829#0 4018796-AddedOnRampEdge 4018796 266873740 117374502#0 -167683574#1 -200664686 167683577#0 167683555#0 273511264#0 -167819132#0 -4018789 -56502504#1 -149765127#2 4875782#0 8320951 278871042 267473432#0 140543429 8320969#0 152402398#0 164111020#0 -272535856#1 -31068405#3 168770473#0 168770476 285197070#0 273361477#0 31009602#0 274825180#0 196012018#0 10516168#0 -53896958 -288311236#2 -56935336 -288313993#2 -53896956 10516169#0 43061997 305146904 43061999 -43062000#2 164013608#0 286242736#0 164013605#0 25686851#0 164013604#0 286564804 286239472#0 25687511#0 168770469#0 25687444#0 168770467#0 277213243 4012098#0 277209388 272096337 277206314#0 277206300#0 277206298#0 277205838#0 4497451#0 4011992#0 277206308#0 168877720 275921344#0 275921356#0 275921359#0 4497314#0 275904724 275904724-AddedOffRampEdge 4012153 280001383 275904704 260583182 86356097#0 260647453 275507287 275507286 260647823 275507271#0"/>
    </vehicle>
    <vehicle id="f0.12" type="type1" depart="1.20">
        <route edges="333570295#0 23307914#0 333570320#0 333570308 333570315#0 264755868#0 264755862#0 182938483#0 282680469#0 264761945 35572950#0 168937669#0 265630459#0 265630458 168937668#0 265631501#0 168937667 4875744 653352726 4875743#0 4875746#0 266640583 266640571 266640546 4018829#0 4018796-AddedOnRampEdge 4018796 266873740 117374502#0 -167683574#1 -200664686 167683577#0 167683555#0 273511264#0 -167819132#0 -4018789 -56502504#1 -149765127#2 4875782#0 8320951 278871042 267473432#0 140543429 181274771#0 270365355#0 270331227 270331225 57870224#0 25947432 285857318 285857317#0 294956075#0 285857309 285282380#0 285282378#0 294977623 285282373 285282381 15238333 -285282361#1 -285282362#1 -285282355#1 -285282354#0 -285282357 -4012050#5 286042714#0 286042719 184791186#0 32009500#0 -183474089#1 -277213255 -369273052 -369273051#1 -297180563 243174993 4012098#0 277209388 272096337 277206314#0 277206300#0 277206298#0 277205838#0 277205493#0 32013582 277205506#0 275921341 275921339 275921342#0 4011856#0 275921348 275921365#0 275921347 4497314#0 275904724 275904724-AddedOffRampEdge 4012153 280001383 275904704 260583182 86356097#0 260647453 275507287 275507286 260647823 275507271#0"/>
    </vehicle>
    <vehicle id="f0.13" type="type1" depart="1.30">
        <route edges="333570295#0 23307914#0 333570320#0 333570308 333570315#0 264755868#0 264755862#0 182938483#0 282680469#0 264761945 35572950#0 168937669#0 265630459#0 265630458 168937668#0 265631501#0 168937667 4875744 653352726 4875743#0 4875746#0 266640583 266640571 266640546 4018829#0 4018796-AddedOnRampEdge 4018796 266873740 117374502#0 -167683574#1 -200664686 167683577#0 167683555#0 273511264#0 -167819132#0 -4018789 -56502504#1 -149765127#2 4875782#0 8320951 278871042 267473432#0 140543429 181274771#0 270365355#0 270331227 270331225 57870224#0 25947432 285857318 285857317#0 294956075#0 285857309 285282380#0 285282378#0 294977623 285282373 285282381 15238333 -285282361#1 -285282362#1 -285282355#1 -285282354#0 -285282357 -4012050#5 286042714#0 286042719 184791186#0 32009500#0 -183474089#1 -277213255 -369273052 116620113 109299806 44937046 286054685 8132085#0 4011875#0 4011888#0 286054692#0 -286054690 -8311357#1 -4497290#1 168877720 275921344#0 275921356#0 275921359#0 4497314#0 275904724 275904724-AddedOffRampEdge 4012153 280001383 275904704 260583182 86356097#0 260647453 275507287 275507286 260647823 275507271#0"/>
    </vehicle>
    <vehicle id="f0.14" type="type1" depart="1.40">
        <route edges="333570295#0 333570301#0 -264672504#1 -264675511#2 -141324108#1 141324112#0 264885340#0 148378168#0 281927972#1 871858972 265630459#0 265630458 168937668#0 265631501#0 168937667 4875744 653352726 4875743#0 4875746#0 266640583 266640571 266640546 4018829#0 4018796-AddedOnRampEdge 4018796 266873740 117374502#0 -167683574#1 -200664686 167683577#0 167683555#0 273511264#0 -167819132#0 -4018789 -56502504#1 -149765127#2 4875782#0 8320951 278871042 267473432#0 140543429 181274771#0 270365355#0 270331227 270331225 57870224#0 25947432 285857318 285857317#0 294956075#0 285857309 285282380#0 285282378#0 294977623 285282373 285282381 15238333 -285282361#1 -285282362#1 -285282355#1 -285282354#0 -285282357 -4012050#5 286042714#0 286042719 184791186#0 32009500#0 -183474089#1 -277213255 -369273052 116620113 109299806 44937046 286054685 8132085#0 4011875#0 4011888#0 286054692#0 -286054690 290036152#0 -111873580#1 -4497290#1 168877720 275921344#0 275921356#0 275921359#0 4497314#0 275904724 275904724-AddedOffRampEdge 4012153 280001383 275904704 260583182 86356097#0 260647453 275507287 275507286 260647823 275507271#0"/>
    </vehicle>
    <vehicle id="f0.15" type="type1" depart="1.50">
        <route edges="333570295#0 333570301#0 -264672504#1 -264675511#2 -141324108#1 141324112#0 264885340#0 148378168#0 281927972#1 871858972 265630459#0 265630458 168937668#0 265631501#0 168937667 4875744 653352726 4875743#0 4875746#0 266640583 266640571 266640546 4018829#0 4018796-AddedOnRampEdge 4018796 266873740 117374502#0 -167683574#1 -200664686 167683577#0 167683555#0 273511264#0 -167819132#0 -4018789 -56502504#1 -149765127#2 4875782#0 8320951 278871042 267473432#0 140543429 181274771#0 270365355#0 270331227 270331225 57870224#0 25947432 285857318 285857317#0 294956075#0 285857309 285282380#0 285282378#0 294977623 285282373 285282381 15238333 -285282361#1 -285282362#1 -285282355#1 -285282354#0 -285282357 -4012050#5 286042714#0 286042719 184791186#0 32009500#0 -183474089#1 -277213255 -369273052 116620113 109299806 44937046 286054685 8132085#0 4011875#0 4011888#0 286054692#0 -286054690 290036152#0 -111873580#1 -4497290#1 168877720 275921344#0 275921356#0 275921359#0 4497314#0 275904724 275904724-AddedOffRampEdge 4012153 280001383 275904704 260583182 86356097#0 260647453 275507287 275507286 260647823 275507271#0"/>
    </vehicle>
    <vehicle id="f0.16" type="type1" depart="1.60">
        <route edges="333570295#0 23307914#0 333570320#0 333570308 333570315#0 264755868#0 264755862#0 182938483#0 282680469#0 264761945 35572950#0 168937669#0 265630459#0 265630458 168937668#0 265631501#0 168937667 4875744 653352726 4875743#0 4875746#0 266640583 266640571 266640546 4018829#0 4018796-AddedOnRampEdge 4018796 266873740 117374502#0 -167683574#1 -200664686 167683577#0 167683555#0 273511264#0 -167819132#0 -4018789 -56502504#1 -149765127#2 4875782#0 8320951 278871042 267473432#0 140543429 181274771#0 270365355#0 270331227 270331225 57870224#0 25947432 285857318 285857317#0 294956075#0 285857309 285282380#0 285282378#0 294977623 285282373 285282381 15238333 -285282361#1 -285282362#1 -285282355#1 -285282354#0 -285282357 -4012050#5 286042714#0 286042719 184791186#0 32009500#0 -183474089#1 -277213255 -369273052 116620113 109299806 44937046 286054685 8132085#0 4011875#0 4011888#0 286054692#0 -286054690 -8311357#1 -4497290#1 168877720 275921344#0 275921360#0 -4497400 111872309#0 4011856#0 275921348 275921365#0 275921347 4497314#0 275904724 275904724-AddedOffRampEdge 4012153 280001383 275904704 260583182 86356097#0 260647453 275507287 275507286 260647823 275507271#0"/>
    </vehicle>
    <vehicle id="f0.17" type="type1" depart="1.70">
        <route edges="333570295#0 333570301#0 -264672504#1 -264675511#2 -141324108#1 141324112#0 264885340#0 148378168#0 281927972#1 871858972 265630459#0 265630458 168937668#0 265631501#0 168937667 4875744 653352726 4875743#0 4875746#0 266640583 266640571 266640546 4018829#0 4018796-AddedOnRampEdge 4018796 266873740 117374502#0 -167683574#1 -200664686 167683577#0 167683555#0 273511264#0 -167819132#0 -4018789 -56502504#1 -149765127#2 4875782#0 8320951 278871042 267473432#0 140543429 181274771#0 270365355#0 270331227 270331225 57870224#0 25947432 285857318 285857317#0 294956075#0 285857309 285282380#0 285282378#0 294977623 285282373 285282381 15238333 -285282361#1 -285282362#1 -285282355#1 -285282354#0 -285282357 -4012050#5 286042714#0 286042719 184791186#0 32009500#0 -183474089#1 -277213255 -369273052 116620113 109299806 44937046 286054685 8132085#0 4011875#0 4011888#0 286054692#0 -286054690 290036152#0 -111873580#1 -4497290#1 168877720 275921344#0 275921356#0 275921359#0 4497314#0 275904724 275904724-AddedOffRampEdge 4012153 280001383 275904704 260583182 86356097#0 260647453 275507287 275507286 260647823 275507271#0"/>
    </vehicle>
    <vehicle id="f0.18" type="type1" depart="1.80">
        <route edges="333570295#0 333570301#0 -264672504#1 -264675511#2 -141324108#1 141324112#0 264885340#0 148378168#0 281927972#1 871858972 265630459#0 265630458 168937668#0 265631501#0 168937667 4875744 653352726 4875743#0 4875746#0 266640583 266640571 266640546 4018829#0 4018796-AddedOnRampEdge 4018796 266873740 117374502#0 -167683574#1 -200664686 167683577#0 167683555#0 273511264#0 -167819132#0 -4018789 -56502504#1 -149765127#2 4875782#0 8320951 278871042 267473432#0 140543429 181274771#0 270365355#0 270331227 270331225 57870224#0 25947432 285857318 285857317#0 294956075#0 285857309 285282380#0 285282378#0 294977623 285282373 285282381 15238333 -285282361#1 -285282362#1 -285282355#1 -285282354#0 -285282357 -4012050#5 286042714#0 286042719 184791186#0 32009500#0 -183474089#1 -277213255 -369273052 -369273051#1 -297180563 243174993 4012098#0 277209388 272096337 277206314#0 277206300#0 277206298#0 277205838#0 277205493#0 32013582 277205491 275921341 275921339 275921342#0 4011856#0 275921348 275921365#0 275921347 4497314#0 275904724 275904724-AddedOffRampEdge 4012153 280001383 275904704 260583182 86356097#0 260647453 275507287 275507286 260647823 275507271#0"/>
    </vehicle>
    <vehicle id="f0.19" type="type1" depart="1.90">
        <route edges="333570295#0 23307914#0 333570320#0 333570308 333570315#0 264755868#0 264755862#0 182938483#0 282680469#0 264761945 35572950#0 168937669#0 265630459#0 265630458 168937668#0 265631501#0 168937667 4875744 653352726 4875743#0 4875746#0 266640583 266640571 266640546 4018829#0 4018796-AddedOnRampEdge 4018796 266873740 117374502#0 -167683574#1 -200664686 167683577#0 167683555#0 273511264#0 -167819132#0 -4018789 -56502504#1 -149765127#2 4875782#0 8320951 278871042 267473432#0 140543429 181274771#0 270365355#0 270331227 270331225 57870224#0 25947432 285857318 285857317#0 294956075#0 285857309 285282380#0 285282378#0 294977623 285282373 285282381 15238333 -285282361#1 -285282362#1 -285282355#1 -285282354#0 -285282357 -4012050#5 286042714#0 286042719 184791186#0 32009500#0 -183474089#1 -277213255 -369273052 -369273051#1 -297180563 243174993 4012098#0 277209388 272096337 277206314#0 277206300#0 277206298#0 277205838#0 277205493#0 32013582 277205506#0 275921341 275921339 275921342#0 4011856#0 275921348 275921365#0 275921347 4497314#0 275904724 275904724-AddedOffRampEdge 4012153 280001383 275904704 260583182 86356097#0 260647453 275507287 275507286 260647823 275507271#0"/>
    </vehicle>
    <vehicle id="f0.20" type="type1" depart="2.00">
        <route edges="333570295#0 23307914#0 333570320#0 333570308 333570315#0 264755868#0 264755862#0 182938483#0 282680469#0 264761945 35572950#0 168937669#0 265630459#0 265630458 168937668#0 265631501#0 168937667 4875744 653352726 4875743#0 4875746#0 266640583 266640571 266640546 4018829#0 4018796-AddedOnRampEdge 4018796 266873740 117374502#0 -167683574#1 -200664686 167683577#0 167683555#0 273511264#0 -167819132#0 -4018789 -56502504#1 -149765127#2 4875782#0 8320951 278871042 267473432#0 140543429 181274771#0 270365355#0 270331227 270331225 57870224#0 25947432 285857318 285857317#0 294956075#0 285857309 285282380#0 285282378#0 294977623 285282373 285282381 15238333 -285282361#1 -285282362#1 -285282355#1 -285282354#0 -285282357 -4012050#5 286042714#0 286042719 184791186#0 32009500#0 -183474089#1 -277213255 -369273052 116620113 109299806 44937046 286054685 8132085#0 4011875#0 4011888#0 286054692#0 -286054690 -8311357#1 -4497290#1 168877720 275921344#0 275921356#0 275921359#0 4497314#0 275904724 275904724-AddedOffRampEdge 4012153 280001383 275904704 260583182 86356097#0 260647453 275507287 275507286 260647823 275507271#0"/>
    </vehicle>
    <vehicle id="f0.21" type="type1" depart="2.10">
        <route edges="333570295#0 23307914#0 333570320#0 333570308 333570315#0 264755868#0 264755862#0 182938483#0 282680469#0 264761945 35572950#0 168937669#0 265630459#0 265630458 168937668#0 265631501#0 168937667 4875744 653352726 4875743#0 4875746#0 266640583 266640571 266640546 4018829#0 4018796-AddedOnRampEdge 4018796 266873740 117374502#0 -167683574#1 -200664686 167683577#0 167683555#0 273511264#0 -167819132#0 -4018789 -56502504#1 -149765127#2 4875782#0 8320951 278871042 267473432#0 140543429 181274771#0 270365355#0 270331227 270331225 57870224#0 25947432 285857318 285857317#0 294956075#0 285857309 285282380#0 285282378#0 294977623 285282373 285282381 15238333 -285282361#1 -285282362#1 -285282355#1 -285282354#0 -285282357 -4012050#5 286042714#0 286042719 184791186#0 32009500#0 -183474089#1 -277213255 -369273052 -369273051#1 -297180563 243174993 4012098#0 277209388 272096337 277206314#0 277206300#0 277206298#0 277205838#0 277205493#0 32013582 277205506#0 275921341 275921339 275921342#0 4011856#0 275921348 275921365#0 275921347 4497314#0 275904724 275904724-AddedOffRampEdge 4012153 280001383 275904704 260583182 86356097#0 260647453 275507287 275507286 260647823 275507271#0"/>
    </vehicle>
    <vehicle id="f0.22" type="type1" depart="2.20">
        <route edges="333570295#0 23307914#0 333570320#0 333570308 333570315#0 264755868#0 264755862#0 182938483#0 282680469#0 264761945 35572950#0 168937669#0 265630459#0 265630458 168937668#0 265631501#0 168937667 4875744 653352726 4875743#0 4875746#0 266640583 266640571 266640546 4018829#0 4018796-AddedOnRampEdge 4018796 266873740 117374502#0 -167683574#1 -200664686 167683577#0 167683555#0 273511264#0 -167819132#0 -4018789 -56502504#1 -149765127#2 4875782#0 8320951 278871042 267473432#0 140543429 181274771#0 270365355#0 270331227 270331225 57870224#0 25947432 285857318 285857317#0 294956075#0 285857309 285282380#0 285282378#0 294977623 285282373 285282381 15238333 -285282361#1 -285282362#1 -285282355#1 -285282354#0 -285282357 -4012050#5 286042714#0 286042719 184791186#0 32009500#0 -183474089#1 -277213255 -369273052 -369273051#1 -297180563 243174993 4012098#0 277209388 272096337 277206314#0 277206300#0 277206298#0 277205838#0 277205493#0 32013582 277205506#0 275921341 275921339 275921342#0 4011856#0 275921348 275921365#0 275921347 4497314#0 275904724 275904724-AddedOffRampEdge 4012153 280001383 275904704 260583182 86356097#0 260647453 275507287 275507286 260647823 275507271#0"/>
    </vehicle>
    <vehicle id="f0.23" type="type1" depart="2.30">