<?xml version="1.0" ?>
<routes xmlns:xsi="http://www.w3.org/2001/XMLSchema-instance" xsi:noNamespaceSchemaLocation="http://sumo.dlr.de/xsd/routes_file.xsd">
	<vType id="type1" accel="2.6" decel="4.5" sigma="0.5" length="5" maxSpeed="70"/>
	<flow type="type1" begin="180" end="190" number="1" from="270877332#0" color="blue" to="246469581#0" id="vehicle_1704"/>
	<flow type="type1" begin="180" end="190" number="1" from="-275904726" color="blue" to="273646974" id="vehicle_7398"/>
	<flow type="type1" begin="180" end="190" number="1" from="273645599#0" color="blue" to="273274784#0" id="vehicle_8926"/>
	<flow type="type1" begin="180" end="190" number="1" from="167819151#0" color="blue" to="4681937" id="vehicle_11976"/>
	<flow type="type1" begin="181" end="191" number="1" from="400758620#0" color="blue" to="236827514" id="vehicle_54"/>
	<flow type="type1" begin="181" end="191" number="1" from="231028291" color="blue" to="-122221173" id="vehicle_1293"/>
	<flow type="type1" begin="181" end="191" number="1" from="306105050" color="blue" to="283657138" id="vehicle_2115"/>
	<flow type="type1" begin="181" end="191" number="1" from="263386382#0" color="blue" to="265947840" id="vehicle_2482"/>
	<flow type="type1" begin="181" end="191" number="1" from="268299499" color="blue" to="161786108" id="vehicle_4730"/>
	<flow type="type1" begin="181" end="191" number="1" from="-183435586#1" color="blue" to="286024479#0" id="vehicle_9752"/>
	<flow type="type1" begin="181" end="191" number="1" from="160540747" color="blue" to="46734803" id="vehicle_10140"/>
	<flow type="type1" begin="181" end="191" number="1" from="10517090#0" color="blue" to="419183874" id="vehicle_10453"/>
	<flow type="type1" begin="181" end="191" number="1" from="23301169#0" color="blue" to="168748701" id="vehicle_11425"/>
	<flow type="type1" begin="181" end="191" number="1" from="173087857" color="blue" to="275186721#0" id="vehicle_13666"/>
	<flow type="type1" begin="182" end="192" number="1" from="-25902093" color="blue" to="-243763247" id="vehicle_9488"/>
	<flow type="type1" begin="183" end="193" number="1" from="264886973" color="blue" to="-268558652" id="vehicle_939"/>
	<flow type="type1" begin="183" end="193" number="1" from="4521007#0" color="blue" to="53561250#0" id="vehicle_3405"/>
	<flow type="type1" begin="183" end="193" number="1" from="267686013" color="blue" to="286026654" id="vehicle_4982"/>
	<flow type="type1" begin="183" end="193" number="1" from="33436059" color="blue" to="30174794" id="vehicle_5700"/>
	<flow type="type1" begin="183" end="193" number="1" from="183874239#0" color="blue" to="-166616182#1" id="vehicle_6088"/>
	<flow type="type1" begin="183" end="193" number="1" from="275898503#0" color="blue" to="285859034" id="vehicle_10859"/>
	<flow type="type1" begin="184" end="194" number="1" from="-163964346#1" color="blue" to="-181504410#1" id="vehicle_1243"/>
	<flow type="type1" begin="184" end="194" number="1" from="586824803#0" color="blue" to="4011844#0" id="vehicle_9052"/>
	<flow type="type1" begin="184" end="194" number="1" from="-4519603" color="blue" to="12543634#0" id="vehicle_9339"/>
	<flow type="type1" begin="184" end="194" number="1" from="267296911#0" color="blue" to="25764506#0" id="vehicle_9972"/>
	<flow type="type1" begin="184" end="194" number="1" from="-171825997" color="blue" to="303600926" id="vehicle_14390"/>
	<flow type="type1" begin="185" end="195" number="1" from="263638825" color="blue" to="8314112#0" id="vehicle_2475"/>
	<flow type="type1" begin="185" end="195" number="1" from="286220752#1" color="blue" to="-275336040#1" id="vehicle_5900"/>
	<flow type="type1" begin="185" end="195" number="1" from="404287070#0" color="blue" to="285554262" id="vehicle_6286"/>
	<flow type="type1" begin="185" end="195" number="1" from="263930093#0" color="blue" to="-275186710" id="vehicle_14257"/>
	<flow type="type1" begin="185" end="195" number="1" from="29280054#0" color="blue" to="260135026#0" id="vehicle_14613"/>
	<flow type="type1" begin="186" end="196" number="1" from="285857311" color="blue" to="363163756" id="vehicle_14929"/>
	<flow type="type1" begin="187" end="197" number="1" from="135287706#0" color="blue" to="266477995#0" id="vehicle_1800"/>
	<flow type="type1" begin="187" end="197" number="1" from="53561247#0" color="blue" to="4857524" id="vehicle_3597"/>
	<flow type="type1" begin="187" end="197" number="1" from="-290492825" color="blue" to="264886967#0" id="vehicle_7267"/>
	<flow type="type1" begin="187" end="197" number="1" from="-285858528" color="blue" to="23230954#0" id="vehicle_8410"/>
	<flow type="type1" begin="187" end="197" number="1" from="285858555" color="blue" to="274919689" id="vehicle_8894"/>
	<flow type="type1" begin="187" end="197" number="1" from="168748695#0" color="blue" to="250732284" id="vehicle_10890"/>
	<flow type="type1" begin="187" end="197" number="1" from="117404869#0" color="blue" to="168553859#0" id="vehicle_11589"/>
	<flow type="type1" begin="187" end="197" number="1" from="270875929#0" color="blue" to="266640592#0" id="vehicle_14095"/>
	<flow type="type1" begin="188" end="198" number="1" from="168734381" color="blue" to="31003948" id="vehicle_383"/>
	<flow type="type1" begin="188" end="198" number="1" from="168773909#0" color="blue" to="273645598#0" id="vehicle_5490"/>
	<flow type="type1" begin="188" end="198" number="1" from="266139585#0" color="blue" to="164701840#0" id="vehicle_5737"/>
	<flow type="type1" begin="188" end="198" number="1" from="22930032#0" color="blue" to="4857424#0" id="vehicle_11815"/>
	<flow type="type1" begin="188" end="198" number="1" from="23147099" color="blue" to="-10752299" id="vehicle_12792"/>
	<flow type="type1" begin="188" end="198" number="1" from="276092718" color="blue" to="270875932" id="vehicle_14806"/>
	<flow type="type1" begin="189" end="199" number="1" from="-292077036" color="blue" to="285272480#0" id="vehicle_2639"/>
	<flow type="type1" begin="189" end="199" number="1" from="276057694" color="blue" to="26068517#0" id="vehicle_6067"/>
	<flow type="type1" begin="189" end="199" number="1" from="-25064795#2" color="blue" to="285081322" id="vehicle_13190"/>
	<flow type="type1" begin="189" end="199" number="1" from="8132449" color="blue" to="247982121" id="vehicle_13573"/>
	<flow type="type1" begin="190" end="200" number="1" from="264646809#0" color="blue" to="-286603665#2" id="vehicle_3978"/>
	<flow type="type1" begin="190" end="200" number="1" from="22802729#0" color="blue" to="267397558#0" id="vehicle_4186"/>
	<flow type="type1" begin="190" end="200" number="1" from="4868904#0" color="blue" to="23331379#0" id="vehicle_6685"/>
	<flow type="type1" begin="190" end="200" number="1" from="118565762#0" color="blue" to="-239938226" id="vehicle_12813"/>
	<flow type="type1" begin="190" end="200" number="1" from="264601134" color="blue" to="269850993#0" id="vehicle_13708"/>
	<flow type="type1" begin="190" end="200" number="1" from="-275553601" color="blue" to="-275262174" id="vehicle_14122"/>
	<flow type="type1" begin="190" end="200" number="1" from="272457562#0" color="blue" to="-275507282" id="vehicle_14389"/>
	<flow type="type1" begin="191" end="201" number="1" from="264663112#0" color="blue" to="-285135596#1" id="vehicle_6"/>
	<flow type="type1" begin="191" end="201" number="1" from="25224955" color="blue" to="-859694036#1" id="vehicle_7946"/>
	<flow type="type1" begin="191" end="201" number="1" from="63696250#0" color="blue" to="275503424#0" id="vehicle_13658"/>
	<flow type="type1" begin="191" end="201" number="1" from="135287707#0" color="blue" to="Corso_Buenos_Aires_added_0" id="vehicle_13849"/>
	<flow type="type1" begin="192" end="202" number="1" from="275489108#0" color="blue" to="273649385#0" id="vehicle_1444"/>
	<flow type="type1" begin="192" end="202" number="1" from="23301177#0" color="blue" to="-264659917" id="vehicle_4259"/>
	<flow type="type1" begin="192" end="202" number="1" from="14347615#0" color="blue" to="252481945#0" id="vehicle_7168"/>
	<flow type="type1" begin="192" end="202" number="1" from="269513857#0" color="blue" to="275547049#0" id="vehicle_12524"/>
	<flow type="type1" begin="193" end="203" number="1" from="4857499#0" color="blue" to="279159123#0" id="vehicle_5536"/>
	<flow type="type1" begin="193" end="203" number="1" from="263361438" color="blue" to="168553865" id="vehicle_5739"/>
	<flow type="type1" begin="193" end="203" number="1" from="30840785#0" color="blue" to="277314358" id="vehicle_13259"/>
	<flow type="type1" begin="194" end="204" number="1" from="263219903#0" color="blue" to="23807764" id="vehicle_1035"/>
	<flow type="type1" begin="194" end="204" number="1" from="-4604811" color="blue" to="-183451617" id="vehicle_12250"/>
	<flow type="type1" begin="195" end="205" number="1" from="274915820" color="blue" to="286045450#0" id="vehicle_3235"/>
	<flow type="type1" begin="195" end="205" number="1" from="-23969974#1" color="blue" to="-263386384" id="vehicle_7948"/>
	<flow type="type1" begin="195" end="205" number="1" from="275500089" color="blue" to="-168877729#3" id="vehicle_9188"/>
	<flow type="type1" begin="196" end="206" number="1" from="285263052" color="blue" to="264601087" id="vehicle_11315"/>
	<flow type="type1" begin="197" end="207" number="1" from="269850997#0" color="blue" to="277216235#0" id="vehicle_811"/>
	<flow type="type1" begin="197" end="207" number="1" from="266546712" color="blue" to="305149991" id="vehicle_7957"/>
	<flow type="type1" begin="197" end="207" number="1" from="23249089#0" color="blue" to="37335594#0" id="vehicle_13208"/>
	<flow type="type1" begin="198" end="208" number="1" from="210982665" color="blue" to="23227426" id="vehicle_299"/>
	<flow type="type1" begin="198" end="208" number="1" from="264761945" color="blue" to="-267695621#2" id="vehicle_8815"/>
	<flow type="type1" begin="199" end="209" number="1" from="-264210435" color="blue" to="283656593" id="vehicle_3493"/>
	<flow type="type1" begin="199" end="209" number="1" from="-53896958" color="blue" to="-5110310#1" id="vehicle_6083"/>
	<flow type="type1" begin="199" end="209" number="1" from="244136939#0" color="blue" to="168748704" id="vehicle_8551"/>
	<flow type="type1" begin="199" end="209" number="1" from="272658808#0" color="blue" to="42326897#0" id="vehicle_8875"/>
	<flow type="type1" begin="199" end="209" number="1" from="4615472" color="blue" to="272189772#0" id="vehicle_12226"/>
	<flow type="type1" begin="200" end="210" number="1" from="-328652099" color="blue" to="-273258757" id="vehicle_664"/>
	<flow type="type1" begin="200" end="210" number="1" from="194635665#0" color="blue" to="134652155" id="vehicle_3653"/>
	<flow type="type1" begin="200" end="210" number="1" from="102464581#0" color="blue" to="171951788#0" id="vehicle_4852"/>
	<flow type="type1" begin="200" end="210" number="1" from="-25306456#1" color="blue" to="285255606" id="vehicle_6370"/>
	<flow type="type1" begin="200" end="210" number="1" from="-98994346" color="blue" to="-183188217#1" id="vehicle_6923"/>
	<flow type="type1" begin="200" end="210" number="1" from="-10752299" color="blue" to="265630454#0" id="vehicle_8211"/>
	<flow type="type1" begin="201" end="211" number="1" from="273645599#0" color="blue" to="-183435587#3" id="vehicle_1992"/>
	<flow type="type1" begin="201" end="211" number="1" from="286603665#0" color="blue" to="172529344#0" id="vehicle_6403"/>
	<flow type="type1" begin="201" end="211" number="1" from="-267052803#2" color="blue" to="272802059#0" id="vehicle_6968"/>
	<flow type="type1" begin="201" end="211" number="1" from="256093964" color="blue" to="275553597#0" id="vehicle_8692"/>
	<flow type="type1" begin="201" end="211" number="1" from="183360584" color="blue" to="254551010#0" id="vehicle_11762"/>
	<flow type="type1" begin="202" end="212" number="1" from="264763793#0" color="blue" to="244552334#0" id="vehicle_3813"/>
	<flow type="type1" begin="203" end="213" number="1" from="57746062" color="blue" to="-264311026" id="vehicle_4577"/>
	<flow type="type1" begin="203" end="213" number="1" from="4049015#0" color="blue" to="264557893" id="vehicle_7403"/>
	<flow type="type1" begin="203" end="213" number="1" from="-25306456#1" color="blue" to="285263052" id="vehicle_8689"/>
	<flow type="type1" begin="203" end="213" number="1" from="-10502110#1" color="blue" to="-59424770#2" id="vehicle_9268"/>
	<flow type="type1" begin="203" end="213" number="1" from="31003946#0" color="blue" to="-297338975" id="vehicle_11639"/>
	<flow type="type1" begin="203" end="213" number="1" from="59132394#0" color="blue" to="7980795" id="vehicle_12875"/>
	<flow type="type1" begin="204" end="214" number="1" from="423865103#0" color="blue" to="-152922475#1" id="vehicle_833"/>
	<flow type="type1" begin="204" end="214" number="1" from="266640582" color="blue" to="261084570" id="vehicle_1732"/>
	<flow type="type1" begin="204" end="214" number="1" from="276076419#0" color="blue" to="273645598#0" id="vehicle_3943"/>
	<flow type="type1" begin="204" end="214" number="1" from="278871042" color="blue" to="22737314#0" id="vehicle_4960"/>
	<flow type="type1" begin="204" end="214" number="1" from="352969044#0-AddedOffRampEdge" color="blue" to="4518614" id="vehicle_8200"/>
	<flow type="type1" begin="205" end="215" number="1" from="569393460#0" color="blue" to="4073450" id="vehicle_242"/>
	<flow type="type1" begin="205" end="215" number="1" from="270662988#0" color="blue" to="275562016#0" id="vehicle_1062"/>
	<flow type="type1" begin="205" end="215" number="1" from="269581839" color="blue" to="23187405#0" id="vehicle_3110"/>
	<flow type="type1" begin="205" end="215" number="1" from="-354123357#1" color="blue" to="258131577#0" id="vehicle_7043"/>
	<flow type="type1" begin="205" end="215" number="1" from="362720934#0" color="blue" to="-276096783" id="vehicle_11921"/>
	<flow type="type1" begin="205" end="215" number="1" from="270388251#0" color="blue" to="-183360584" id="vehicle_12284"/>
	<flow type="type1" begin="206" end="216" number="1" from="46735002" color="blue" to="186691902#0" id="vehicle_3079"/>
	<flow type="type1" begin="206" end="216" number="1" from="44935719" color="blue" to="266382762#0" id="vehicle_12281"/>
	<flow type="type1" begin="207" end="217" number="1" from="268566140" color="blue" to="10752271#0" id="vehicle_10092"/>
	<flow type="type1" begin="207" end="217" number="1" from="4017858#0" color="blue" to="-264368356" id="vehicle_10458"/>
	<flow type="type1" begin="207" end="217" number="1" from="275489133" color="blue" to="24825838#0" id="vehicle_12376"/>
	<flow type="type1" begin="207" end="217" number="1" from="247329323#0" color="blue" to="25064795#0" id="vehicle_12837"/>
	<flow type="type1" begin="207" end="217" number="1" from="23227646" color="blue" to="183085201#0" id="vehicle_13436"/>
	<flow type="type1" begin="208" end="218" number="1" from="286590876#0" color="blue" to="264921270" id="vehicle_3866"/>
	<flow type="type1" begin="208" end="218" number="1" from="212740205" color="blue" to="285268654#0" id="vehicle_5740"/>
	<flow type="type1" begin="208" end="218" number="1" from="22494425" color="blue" to="86072225#2" id="vehicle_8261"/>
	<flow type="type1" begin="208" end="218" number="1" from="10516169#0" color="blue" to="4857489#0" id="vehicle_12552"/>
	<flow type="type1" begin="209" end="219" number="1" from="-297180563" color="blue" to="164247792#0" id="vehicle_8579"/>
	<flow type="type1" begin="209" end="219" number="1" from="23884946" color="blue" to="4858692#0" id="vehicle_11487"/>
	<flow type="type1" begin="209" end="219" number="1" from="264612105#1" color="blue" to="286594154#0" id="vehicle_12043"/>
	<flow type="type1" begin="209" end="219" number="1" from="272096342" color="blue" to="272189771" id="vehicle_14484"/>
	<flow type="type1" begin="210" end="220" number="1" from="172529342#0" color="blue" to="248201601" id="vehicle_4"/>
	<flow type="type1" begin="210" end="220" number="1" from="-285858555" color="blue" to="184631419-AddedOnRampEdge" id="vehicle_612"/>
	<flow type="type1" begin="211" end="221" number="1" from="276080339" color="blue" to="168937668#0" id="vehicle_1615"/>
	<flow type="type1" begin="211" end="221" number="1" from="286054688" color="blue" to="4875765" id="vehicle_6063"/>
	<flow type="type1" begin="211" end="221" number="1" from="31310572#0" color="blue" to="8313840#0" id="vehicle_8544"/>
	<flow type="type1" begin="211" end="221" number="1" from="4524677#0" color="blue" to="-545268456" id="vehicle_13648"/>
	<flow type="type1" begin="211" end="221" number="1" from="273269510" color="blue" to="57871138#0" id="vehicle_14897"/>
	<flow type="type1" begin="212" end="222" number="1" from="-264927492" color="blue" to="-269851160#2" id="vehicle_3375"/>
	<flow type="type1" begin="212" end="222" number="1" from="23811642#0" color="blue" to="44168848" id="vehicle_6844"/>
	<flow type="type1" begin="212" end="222" number="1" from="272928457" color="blue" to="-264210435" id="vehicle_13767"/>
	<flow type="type1" begin="213" end="223" number="1" from="35597302" color="blue" to="289845402#0" id="vehicle_184"/>
	<flow type="type1" begin="213" end="223" number="1" from="-135199615#1" color="blue" to="35597313" id="vehicle_4187"/>
	<flow type="type1" begin="213" end="223" number="1" from="285081342" color="blue" to="275489108#0" id="vehicle_7656"/>
	<flow type="type1" begin="214" end="224" number="1" from="-266546691#3" color="blue" to="-25064795#2" id="vehicle_2119"/>
	<flow type="type1" begin="214" end="224" number="1" from="135046797#0" color="blue" to="264363526#0" id="vehicle_5482"/>
	<flow type="type1" begin="214" end="224" number="1" from="275564349" color="blue" to="4492813#0" id="vehicle_12868"/>
	<flow type="type1" begin="215" end="225" number="1" from="-51357051" color="blue" to="-83058781#2" id="vehicle_794"/>
	<flow type="type1" begin="215" end="225" number="1" from="10495082" color="blue" to="-171951782#1" id="vehicle_5417"/>
	<flow type="type1" begin="215" end="225" number="1" from="279395598" color="blue" to="-175299312#3" id="vehicle_7834"/>
	<flow type="type1" begin="215" end="225" number="1" from="272189769" color="blue" to="240290412" id="vehicle_8830"/>
	<flow type="type1" begin="215" end="225" number="1" from="-164919484#1" color="blue" to="275921360#0" id="vehicle_9163"/>
	<flow type="type1" begin="215" end="225" number="1" from="258070025#0" color="blue" to="265864430#0" id="vehicle_10582"/>
	<flow type="type1" begin="216" end="226" number="1" from="-162797945" color="blue" to="-267397556#1" id="vehicle_1003"/>
	<flow type="type1" begin="216" end="226" number="1" from="286594148#0" color="blue" to="232836673" id="vehicle_8779"/>
	<flow type="type1" begin="216" end="226" number="1" from="210982668" color="blue" to="-23147089#1" id="vehicle_12342"/>
	<flow type="type1" begin="217" end="227" number="1" from="27633084" color="blue" to="275921353" id="vehicle_7859"/>
	<flow type="type1" begin="217" end="227" number="1" from="4012016#0" color="blue" to="23196429" id="vehicle_10513"/>
	<flow type="type1" begin="218" end="228" number="1" from="278686966#0" color="blue" to="-374801263" id="vehicle_1633"/>
	<flow type="type1" begin="218" end="228" number="1" from="-185816848#1" color="blue" to="7980184" id="vehicle_2333"/>
	<flow type="type1" begin="218" end="228" number="1" from="264333622#0" color="blue" to="24971165#0" id="vehicle_12819"/>
	<flow type="type1" begin="219" end="229" number="1" from="267294099#0" color="blue" to="10752280" id="vehicle_4078"/>
	<flow type="type1" begin="219" end="229" number="1" from="305145855" color="blue" to="152920261#0" id="vehicle_7402"/>
	<flow type="type1" begin="219" end="229" number="1" from="232065507#0" color="blue" to="168553857#0" id="vehicle_11347"/>
	<flow type="type1" begin="219" end="229" number="1" from="183868977#0" color="blue" to="168553873#0" id="vehicle_14502"/>
	<flow type="type1" begin="219" end="229" number="1" from="17188609" color="blue" to="269820733#0" id="vehicle_14866"/>
	<flow type="type1" begin="221" end="231" number="1" from="275499894#0" color="blue" to="4875745" id="vehicle_8670"/>
	<flow type="type1" begin="221" end="231" number="1" from="4011862#0" color="blue" to="168770516#0" id="vehicle_10497"/>
	<flow type="type1" begin="221" end="231" number="1" from="-182830456#3" color="blue" to="23969976#0" id="vehicle_14467"/>
	<flow type="type1" begin="222" end="232" number="1" from="266382755" color="blue" to="275512348#0" id="vehicle_1727"/>
	<flow type="type1" begin="222" end="232" number="1" from="329494940" color="blue" to="23227549#0" id="vehicle_5172"/>
	<flow type="type1" begin="222" end="232" number="1" from="268566136#0" color="blue" to="266654099#0" id="vehicle_5696"/>
	<flow type="type1" begin="222" end="232" number="1" from="162797948" color="blue" to="117421467#0" id="vehicle_9892"/>
	<flow type="type1" begin="222" end="232" number="1" from="138212134#0" color="blue" to="-264763115" id="vehicle_10446"/>
	<flow type="type1" begin="223" end="233" number="1" from="-172819166#1" color="blue" to="254615960#0" id="vehicle_389"/>
	<flow type="type1" begin="223" end="233" number="1" from="268563091" color="blue" to="194635665#0" id="vehicle_5501"/>
	<flow type="type1" begin="223" end="233" number="1" from="-266546698" color="blue" to="11479251#0" id="vehicle_6196"/>
	<flow type="type1" begin="223" end="233" number="1" from="-249637513#1" color="blue" to="264609069" id="vehicle_9668"/>
	<flow type="type1" begin="223" end="233" number="1" from="266675525" color="blue" to="-148358575#1" id="vehicle_14646"/>
	<flow type="type1" begin="224" end="234" number="1" from="276076422#0" color="blue" to="4524908#0" id="vehicle_6277"/>
	<flow type="type1" begin="225" end="235" number="1" from="-675492458" color="blue" to="-32263785" id="vehicle_846"/>
	<flow type="type1" begin="225" end="235" number="1" from="9823956#0" color="blue" to="273267813#0" id="vehicle_3119"/>
	<flow type="type1" begin="225" end="235" number="1" from="-266546691#3" color="blue" to="272928452#0" id="vehicle_6526"/>
	<flow type="type1" begin="225" end="235" number="1" from="596179892" color="blue" to="208251536#0" id="vehicle_11618"/>
	<flow type="type1" begin="225" end="235" number="1" from="275518495#0" color="blue" to="172927150#0" id="vehicle_12368"/>
	<flow type="type1" begin="226" end="236" number="1" from="264568199#0" color="blue" to="96017805" id="vehicle_7573"/>
	<flow type="type1" begin="226" end="236" number="1" from="304645762" color="blue" to="164652736#0" id="vehicle_7715"/>
	<flow type="type1" begin="227" end="237" number="1" from="268560506" color="blue" to="149768938#0" id="vehicle_5471"/>
	<flow type="type1" begin="227" end="237" number="1" from="53825790#0" color="blue" to="-286220825#1" id="vehicle_5551"/>
	<flow type="type1" begin="227" end="237" number="1" from="23301367#0" color="blue" to="267059475" id="vehicle_8046"/>
	<flow type="type1" begin="227" end="237" number="1" from="352314620" color="blue" to="7980210#0" id="vehicle_12004"/>
	<flow type="type1" begin="227" end="237" number="1" from="264601093#0" color="blue" to="338666525#0" id="vehicle_12751"/>
	<flow type="type1" begin="227" end="237" number="1" from="183706074" color="blue" to="23970004" id="vehicle_13598"/>
	<flow type="type1" begin="227" end="237" number="1" from="30764366#0" color="blue" to="268412976" id="vehicle_14747"/>
	<flow type="type1" begin="228" end="238" number="1" from="23106210" color="blue" to="266139581" id="vehicle_1300"/>
	<flow type="type1" begin="228" end="238" number="1" from="263353547#0" color="blue" to="58444804#0" id="vehicle_12754"/>
	<flow type="type1" begin="229" end="239" number="1" from="48425360#0" color="blue" to="275898510" id="vehicle_7019"/>
	<flow type="type1" begin="229" end="239" number="1" from="-266360816" color="blue" to="76158889" id="vehicle_8055"/>
	<flow type="type1" begin="229" end="239" number="1" from="24790855#0" color="blue" to="181343603" id="vehicle_10517"/>
	<flow type="type1" begin="229" end="239" number="1" from="243486288#0" color="blue" to="-355538678" id="vehicle_10691"/>
	<flow type="type1" begin="229" end="239" number="1" from="266669707#0" color="blue" to="276502518" id="vehicle_13341"/>
	<flow type="type1" begin="230" end="240" number="1" from="286024464" color="blue" to="266672981" id="vehicle_6378"/>
	<flow type="type1" begin="231" end="241" number="1" from="4889168" color="blue" to="4497727#0" id="vehicle_3130"/>
	<flow type="type1" begin="231" end="241" number="1" from="116620113" color="blue" to="168770476" id="vehicle_4663"/>
	<flow type="type1" begin="231" end="241" number="1" from="8154591#0" color="blue" to="276479948#0" id="vehicle_5538"/>
	<flow type="type1" begin="231" end="241" number="1" from="54909731#0" color="blue" to="117374504#0" id="vehicle_13074"/>
	<flow type="type1" begin="232" end="242" number="1" from="274932988" color="blue" to="30764309" id="vehicle_11945"/>
	<flow type="type1" begin="233" end="243" number="1" from="897749712" color="blue" to="23257855#0" id="vehicle_6555"/>
	<flow type="type1" begin="233" end="243" number="1" from="-168553857#1" color="blue" to="147972363#0" id="vehicle_7104"/>
	<flow type="type1" begin="233" end="243" number="1" from="-162797936" color="blue" to="268400865" id="vehicle_14447"/>
	<flow type="type1" begin="233" end="243" number="1" from="264776935" color="blue" to="264311023" id="vehicle_14949"/>
	<flow type="type1" begin="234" end="244" number="1" from="23187682#0" color="blue" to="283656593" id="vehicle_1252"/>
	<flow type="type1" begin="234" end="244" number="1" from="273253046" color="blue" to="-133961085#2" id="vehicle_4625"/>
	<flow type="type1" begin="234" end="244" number="1" from="274549071" color="blue" to="-164013605#2" id="vehicle_9123"/>
	<flow type="type1" begin="234" end="244" number="1" from="-116051201#2" color="blue" to="333570317#0" id="vehicle_10014"/>
	<flow type="type1" begin="234" end="244" number="1" from="-275262159" color="blue" to="275947088#0" id="vehicle_13696"/>
	<flow type="type1" begin="234" end="244" number="1" from="168773936#2" color="blue" to="-4868922#4" id="vehicle_14400"/>
	<flow type="type1" begin="235" end="245" number="1" from="267429832#3" color="blue" to="30325860#0" id="vehicle_3532"/>
	<flow type="type1" begin="235" end="245" number="1" from="14207709" color="blue" to="273253074#0" id="vehicle_4642"/>
	<flow type="type1" begin="235" end="245" number="1" from="-48426058" color="blue" to="-184324157#3" id="vehicle_4830"/>
	<flow type="type1" begin="235" end="245" number="1" from="291881691#0" color="blue" to="239908012#0" id="vehicle_7359"/>
	<flow type="type1" begin="235" end="245" number="1" from="44635394" color="blue" to="10753056#0" id="vehicle_9850"/>
	<flow type="type1" begin="236" end="246" number="1" from="197249314" color="blue" to="4013220#0" id="vehicle_4543"/>
	<flow type="type1" begin="236" end="246" number="1" from="178998313#0" color="blue" to="-258393763" id="vehicle_11474"/>
	<flow type="type1" begin="236" end="246" number="1" from="272928452#0" color="blue" to="276066648#0" id="vehicle_13092"/>
	<flow type="type1" begin="237" end="247" number="1" from="133889565" color="blue" to="23196940#0" id="vehicle_5683"/>
	<flow type="type1" begin="237" end="247" number="1" from="255724549" color="blue" to="7980212#0" id="vehicle_14869"/>
	<flow type="type1" begin="238" end="248" number="1" from="23969976#0" color="blue" to="247383736#0" id="vehicle_10391"/>
	<flow type="type1" begin="239" end="249" number="1" from="266360780#0" color="blue" to="182830456#0" id="vehicle_3065"/>
	<flow type="type1" begin="239" end="249" number="1" from="57870226" color="blue" to="264755868#0" id="vehicle_3650"/>
	<flow type="type1" begin="239" end="249" number="1" from="739488711" color="blue" to="283658489#0" id="vehicle_3777"/>
	<flow type="type1" begin="239" end="249" number="1" from="-264560942" color="blue" to="264927762" id="vehicle_4068"/>
	<flow type="type1" begin="239" end="249" number="1" from="273649395#0" color="blue" to="-183864030" id="vehicle_4164"/>
	<flow type="type1" begin="240" end="250" number="1" from="333570315#0" color="blue" to="274915814" id="vehicle_437"/>
	<flow type="type1" begin="240" end="250" number="1" from="28810653" color="blue" to="23159743" id="vehicle_708"/>
	<flow type="type1" begin="240" end="250" number="1" from="276501581#0" color="blue" to="272659189" id="vehicle_11155"/>
	<flow type="type1" begin="240" end="250" number="1" from="4718580#0" color="blue" to="-4518581#1" id="vehicle_11233"/>
	<flow type="type1" begin="241" end="251" number="1" from="-267055500" color="blue" to="-25827750" id="vehicle_3836"/>
	<flow type="type1" begin="241" end="251" number="1" from="152466114#0" color="blue" to="4524888#0" id="vehicle_5286"/>
	<flow type="type1" begin="241" end="251" number="1" from="48426034" color="blue" to="286054689" id="vehicle_5592"/>
	<flow type="type1" begin="241" end="251" number="1" from="265974784#0" color="blue" to="277205503" id="vehicle_8819"/>
	<flow type="type1" begin="242" end="252" number="1" from="4011886#0" color="blue" to="4011958#0" id="vehicle_1458"/>
	<flow type="type1" begin="242" end="252" number="1" from="264612105#1" color="blue" to="168553872#0" id="vehicle_1604"/>
	<flow type="type1" begin="242" end="252" number="1" from="171941225" color="blue" to="276501584#0" id="vehicle_6157"/>
	<flow type="type1" begin="242" end="252" number="1" from="614040413" color="blue" to="-273647597#1" id="vehicle_11310"/>
	<flow type="type1" begin="242" end="252" number="1" from="264339257" color="blue" to="269853318" id="vehicle_14934"/>
	<flow type="type1" begin="243" end="253" number="1" from="-265631501#1" color="blue" to="275913179" id="vehicle_611"/>
	<flow type="type1" begin="243" end="253" number="1" from="285272432" color="blue" to="285858523" id="vehicle_10984"/>
	<flow type="type1" begin="243" end="253" number="1" from="4018801" color="blue" to="23227351#0" id="vehicle_12879"/>
	<flow type="type1" begin="243" end="253" number="1" from="272795064#0" color="blue" to="168773897#0" id="vehicle_14486"/>